<?xml version='1.0' encoding='UTF-8' standalone='no'?>
<doxygen xmlns:xsi="http://www.w3.org/2001/XMLSchema-instance" xsi:noNamespaceSchemaLocation="compound.xsd" version="1.9.4" xml:lang="en-US">
  <compounddef id="class_i_c_e_1_1_s_d_kto_a_p_i_1_1_contracts_1_1e_u_l_d_d___g_n_m___mntry_evnt_typ" kind="class" language="C#" prot="public">
    <compoundname>ICE::SDKtoAPI::Contracts::eULDD_GNM_MntryEvntTyp</compoundname>
      <sectiondef kind="public-static-attrib">
      <memberdef kind="variable" id="class_i_c_e_1_1_s_d_kto_a_p_i_1_1_contracts_1_1e_u_l_d_d___g_n_m___mntry_evnt_typ_1ae82b73ef9277514d7df317631235e16c" prot="public" static="yes" mutable="no">
        <type>readonly string</type>
        <definition>readonly string ICE.SDKtoAPI.Contracts.eULDD_GNM_MntryEvntTyp.CurtailmentToUPB</definition>
        <argsstring></argsstring>
        <name>CurtailmentToUPB</name>
        <qualifiedname>ICE.SDKtoAPI.Contracts.eULDD_GNM_MntryEvntTyp.CurtailmentToUPB</qualifiedname>
        <initializer>= &quot;CurtailmentToUPB&quot;</initializer>
        <briefdescription>
        </briefdescription>
        <detaileddescription>
        </detaileddescription>
        <inbodydescription>
        </inbodydescription>
        <location file="C:/Development_2020/ICE.SDKtoAPI/ICE.SDKtoAPI/Contracts/SDKAPIBaseEnums.cs" line="29806" column="39" bodyfile="C:/Development_2020/ICE.SDKtoAPI/ICE.SDKtoAPI/Contracts/SDKAPIBaseEnums.cs" bodystart="29806" bodyend="-1"/>
      </memberdef>
      </sectiondef>
    <briefdescription>
    </briefdescription>
    <detaileddescription>
    </detaileddescription>
    <collaborationgraph>
      <node id="1">
        <label>ICE.SDKtoAPI.Contracts.eULDD_GNM_MntryEvntTyp</label>
        <link refid="class_i_c_e_1_1_s_d_kto_a_p_i_1_1_contracts_1_1e_u_l_d_d___g_n_m___mntry_evnt_typ"/>
        <childnode refid="2" relation="usage">
          <edgelabel>CurtailmentToUPB</edgelabel>
        </childnode>
      </node>
      <node id="2">
        <label>static</label>
      </node>
    </collaborationgraph>
    <location file="C:/Development_2020/ICE.SDKtoAPI/ICE.SDKtoAPI/Contracts/SDKAPIBaseEnums.cs" line="29804" column="11" bodyfile="C:/Development_2020/ICE.SDKtoAPI/ICE.SDKtoAPI/Contracts/SDKAPIBaseEnums.cs" bodystart="29805" bodyend="29807"/>
    <listofallmembers>
      <member refid="class_i_c_e_1_1_s_d_kto_a_p_i_1_1_contracts_1_1e_u_l_d_d___g_n_m___mntry_evnt_typ_1ae82b73ef9277514d7df317631235e16c" prot="public" virt="non-virtual"><scope>ICE::SDKtoAPI::Contracts::eULDD_GNM_MntryEvntTyp</scope><name>CurtailmentToUPB</name></member>
    </listofallmembers>
  </compounddef>
</doxygen>
